Version 4
SHEET 1 880 680
WIRE 400 64 224 64
WIRE 224 96 224 64
WIRE 128 144 48 144
WIRE 48 160 48 144
WIRE 128 176 128 144
WIRE 176 176 128 176
WIRE 400 176 400 64
WIRE 48 304 48 240
WIRE 224 304 224 192
WIRE 224 304 48 304
WIRE 400 304 400 256
WIRE 400 304 224 304
WIRE 224 336 224 304
FLAG 224 336 0
SYMBOL pmos 176 96 R0
SYMATTR InstName M1
SYMBOL voltage 48 256 R180
WINDOW 0 24 96 Left 2
WINDOW 3 24 16 Left 2
WINDOW 123 0 0 Left 0
WINDOW 39 0 0 Left 0
SYMATTR InstName V1
SYMATTR Value 3
SYMBOL voltage 400 272 R180
WINDOW 0 24 96 Left 2
WINDOW 3 24 16 Left 2
WINDOW 123 0 0 Left 0
WINDOW 39 0 0 Left 0
SYMATTR InstName V2
SYMATTR Value 5
TEXT 512 104 Left 2 !.dc V1 0 3 0.01 V2 0 3 0.5
